/*--------------------------------*- C++ -*------------engine:jinja2----------------------*\
| =========                 |                                                 |
| \\      /  F ield         | OpenFOAM: The Open Source CFD Toolbox           |
|  \\    /   O peration     | Version:  v2406                                 |
|   \\  /    A nd           | Website:  www.openfoam.com                      |
|    \\/     M anipulation  |                                                 |
\*---------------------------------------------------------------------------*/
FoamFile
{
    version     2.0;
    format      ascii;
    class       dictionary;
    object      blockMeshDict;
}
// * * * * * * * * * * * * * * * * * * * * * * * * * * * * * * * * * * * * * //

scale   1;

// L:length, H:height, W:width
L       5;
H       2;
W       3;

vertices
(
    ( 0   0   0)
    ($L   0   0)
    ($L  $H   0)
    ( 0  $H   0)
    ( 0   0   $W)
    ($L   0   $W)
    ($L  $H   $W)
    ( 0  $H   $W)
);

blocks
(
    hex ( 0  1  2  3  4  5  6  7 ) (200 32 32) simpleGrading (1 1 1)
);


boundary
(
    bottom
    {
        type            wall;
        faces           ((0 1 5 4));
    }
    top
    {
        type            wall;
        faces           ((3 2 6 7));
    }
    left
    {
        type            cyclic;
        neighbourPatch  right;
        faces           ((4 5 6 7));
    }
    
    right
    {
        type            cyclic;
        neighbourPatch  left;
        faces           ((0 1 2 3));
    }
    
    
    
        inlet
        {
            type            cyclic;
            neighbourPatch  outlet;
            faces           ((0 3 4 7));
        }
        
        outlet
        {
            type            cyclic;
            neighbourPatch  inlet;
            faces           ((1 2 5 6));
        }
    
);


// ************************************************************************* //